75
co2h.120_120.log	Energy: -1269813.9206430
O         -2.93092        3.39389        0.48546
O          2.86807       -3.42163        0.88876
O          1.73151       -2.20044        3.02910
O         -2.07127        2.25255        2.81404
O          0.80753       -4.21248       -0.68278
O         -3.96516        1.38583       -0.99513
O         -2.81166       -0.39498        2.84583
O         -0.98840       -2.44416        2.91445
O          0.64748        2.51053        2.92229
O          2.40225        0.43767        3.01370
O          4.09033       -1.46545       -0.53937
O         -0.72419        4.16178       -0.88332
O          1.37833        3.99514        0.79152
O          4.15212        0.76283        0.99009
O         -4.23805       -0.78846        0.57247
O         -1.46162       -4.00684        0.75965
O          0.62006       -2.65228       -2.88718
O         -2.29464        0.72552       -3.00903
O         -3.38307       -2.93751       -0.82566
O          3.42492        2.85250       -0.55469
O         -0.22325        2.49337       -2.95098
O          2.75557       -0.93101       -2.84233
O         -2.03266       -1.98581       -2.98447
O          2.40941        1.79647       -2.83579
H         -2.40628        2.65874        1.96727
H         -3.61429        2.15442       -0.45860
H         -2.13161        3.73371       -0.00923
H          2.47186       -3.00171        1.70401
H          2.09280       -3.71723        0.33063
H          3.64443       -2.17824        0.00211
H         -0.00204       -2.31204        2.98004
H          1.96726       -1.23204        3.04825
H         -2.31221        1.28581        2.78438
H         -0.33982        2.37072        2.87552
H          5.09405        0.88985        1.30347
H         -5.20110       -0.86934        0.82847
H         -0.04795       -4.11927       -0.17267
H          0.72335       -3.61828       -1.48449
H         -4.85850        1.66751       -1.34740
H         -4.16654        0.03185        0.00391
H         -2.88734        1.00215       -2.25218
H         -2.07144       -1.06094        2.86065
H         -3.30793       -0.56061        1.99423
H         -1.30919       -3.40202        1.54263
H          1.69879        1.14409        2.97321
H          1.14027        3.41635        1.57245
H          3.02883        0.60825        2.25321
H          4.09722       -0.64643        0.03352
H          3.19843       -1.13888       -1.97106
H          0.05568        4.12416       -0.25756
H         -0.79021        5.11191       -1.19063
H         -0.37357        3.11182       -2.17939
H          2.14470        3.56363        0.31751
H          3.93475        1.55023        0.41379
H         -3.73084       -2.12986       -0.34845
H         -2.18295       -3.59522        0.20222
H          1.91822       -1.47045       -2.85208
H         -0.33097       -2.36322       -2.96105
H         -1.48731        1.30946       -2.96486
H         -2.11922       -0.99395       -3.03173
H         -2.92663       -2.59328       -1.64523
H          3.11729        2.50824       -1.44119
H          0.72952        2.19907       -2.89576
H          2.50762        0.80410       -2.84363
C          0.01166       -0.02356        0.00070
O         -0.70298        0.16030        0.91869
O          0.72631       -0.20744       -0.91733
H         -3.57658        4.15325        0.53061
H          2.09580       -2.60462        3.86720
H         -1.23639       -2.99945        3.70869
H          0.80410        3.10052        3.71554
H          0.78296       -3.26609       -3.65915
H          4.16803        3.50152       -0.69734
H         -2.45061       -2.35969       -3.81097
H          2.88757        2.13393       -3.64694
