14
NH3_NIS.log	Energy: -446134.9745481
N         -0.00221       -3.77996        0.00000
H          0.46743       -4.14400        0.81814
H          0.46743       -4.14400       -0.81814
H         -0.94969       -4.13318        0.00000
I          0.00158       -1.08599        0.00000
C          1.13968        1.76760        0.00000
N          0.00000        0.97272        0.00000
O          2.27857        1.38388        0.00000
O         -2.27945        1.37888        0.00000
C         -1.14139        1.76511        0.00000
C         -0.66389        3.19011        0.00000
C          0.65900        3.19157        0.00000
H          1.34804        4.02195        0.00000
H         -1.35476        4.01897        0.00000
